Circuit: * D:\Documents\XoNano\arduino\Input Circuits\3-7v_battery.asc

Instance "m:u2:6": Length shorter than recommended for a level 2 MOSFET.
Instance "m:u2:5": Length shorter than recommended for a level 2 MOSFET.
Instance "m:u2:2": Length shorter than recommended for a level 2 MOSFET.
Instance "m:u2:1": Length shorter than recommended for a level 2 MOSFET.
Direct Newton iteration for .op point succeeded.

Date: Wed May 01 15:52:49 2019
Total elapsed time: 0.068 seconds.

tnom = 27
temp = 27
method = modified trap
totiter = 2177
traniter = 2143
tranpoints = 1072
accept = 1064
rejected = 8
matrix size = 57
fillins = 25
solver = Normal
Matrix Compiler1: 4.48 KB object code size  0.9/0.4/[0.2]
Matrix Compiler2: 5.61 KB object code size  0.5/0.7/[0.3]

