Circuit: * D:\Documents\XoNano\arduino\Input Circuits\60hz_notch_filter.asc

Instance "m:u2:6": Length shorter than recommended for a level 2 MOSFET.
Instance "m:u2:5": Length shorter than recommended for a level 2 MOSFET.
Instance "m:u2:2": Length shorter than recommended for a level 2 MOSFET.
Instance "m:u2:1": Length shorter than recommended for a level 2 MOSFET.
Direct Newton iteration for .op point succeeded.

Date: Tue Apr 30 10:27:34 2019
Total elapsed time: 0.041 seconds.

tnom = 27
temp = 27
method = trap
totiter = 9
traniter = 0
tranpoints = 0
accept = 0
rejected = 0
matrix size = 53
fillins = 24
solver = Normal
Matrix Compiler1:     240 opcodes
Matrix Compiler2: 4.98 KB object code size
