Circuit: * D:\Documents\XoNano\arduino\Input Circuits\Draft4.asc

Direct Newton iteration for .op point succeeded.

Date: Tue Apr 30 12:25:02 2019
Total elapsed time: 0.037 seconds.

tnom = 27
temp = 27
method = trap
totiter = 3
traniter = 0
tranpoints = 0
accept = 0
rejected = 0
matrix size = 13
fillins = 20
solver = Normal
Matrix Compiler1:     168 opcodes
Matrix Compiler2: 1.67 KB object code size
